tests/data/power_flow/automatic-tap-regulator/auto-tap-changer-with-line-into-itself/input.json
{
  "version": "1.0",
  "type": "input",
  "is_batch": false,
  "attributes": {},
  "data": {
    "node": [
      {
        "id": 1,
        "u_rated": 10e3
      },
      {
        "id": 2,
        "u_rated": 10e3
      }
    ],
    "line": [
      {
        "id": 3,
        "from_node": 2,
        "to_node": 2,
        "from_status": 0,
        "to_status": 0,
        "r1": 1000.0,
        "x1": 1000.0,
        "c1": 2.0e-6,
        "tan1": 0.1,
        "r0": 1000.0,
        "x0": 1000.0,
        "c0": 1.0e-6,
        "tan0": 0.2,
        "extra": "Line connected to itself on the load node (see readme)"
      }
    ],
    "shunt": [
      {
        "id": 4,
        "node": 2,
        "status": 1,
        "g1": 6.283185307179587e-5,
        "b1": 6.283185307179587e-4,
        "g0": 6.283185307179587e-5,
        "b0": 3.141592653589793e-4,
        "extra": "The shunt that mimics the line into itself on the load node and acts as a benchmark (see readme)"
      }
    ],
    "source": [
      {
        "id": 5,
        "node": 1,
        "status": 1,
        "u_ref": 1.05,
        "sk": 1e12
      }
    ],
    "sym_load": [
      {
        "id": 6,
        "node": 2,
        "status": 1,
        "type": 1,
        "p_specified": 6.0e5,
        "q_specified": 3.0e5
      }
    ],
    "transformer": [
      {
        "id": 7,
        "from_node": 1,
        "to_node": 2,
        "from_status": 1,
        "to_status": 1,
        "u1": 10000,
        "u2": 10000,
        "sn": 1000000,
        "uk": 0.06,
        "pk": 8000,
        "i0": 0.003,
        "p0": 1200,
        "winding_from": 0,
        "winding_to": 0,
        "clock": 0,
        "tap_side": 0,
        "tap_pos": 1,
        "tap_min": -10,
        "tap_max": 10,
        "tap_nom": 1,
        "tap_size": 125
      }
    ],
    "transformer_tap_regulator": [
      {
        "id": 8,
        "regulated_object": 7,
        "status": 1,
        "control_side": 1,
        "u_set": 10000,
        "u_band": 300
      }
    ]
  }
}