tests/data/power_flow/automatic-tap-regulator/auto-tap-changer-with-line-into-itself/asym_output_batch.json
{
  "version": "1.0",
  "type": "asym_output",
  "is_batch": true,
  "attributes": {},
  "data": [
    {
      "node": [
        {"id": 1, "energized": 1, "u_pu": [1.049999687830099, 1.049999687830099, 1.049999687830099], "u": [6062.1760241773063, 6062.1760241773063, 6062.1760241773063], "u_angle": [-5.3237584571614309e-07, -2.0943956347690413, 2.0943945700173501], "p": [205548.81572464595, 205548.81572464728, 205548.81572464504], "q": [89249.437121308118, 89249.437121307856, 89249.437121307274]},
        {"id": 2, "energized": 1, "u_pu": [1.0046851575119111, 1.0046851575119105, 1.0046851575119118], "u": [5800.5524614032347, 5800.5524614032302, 5800.5524614032383], "u_angle": [-0.033528874528392164, -2.127923976921589, 2.0608662278648024], "p": [-201878.45314494648, -201878.4531449466, -201878.45314494648], "q": [-100939.22657247256, -100939.22657247361, -100939.22657247401]}
      ],
      "line": [
        {"id": 3, "energized": 0, "p_from": [0, 0, 0], "q_from": [0, 0, 0], "i_from": [0, 0, 0], "s_from": [0, 0, 0], "p_to": [0, 0, 0], "q_to": [0, 0, 0], "i_to": [0, 0, 0], "s_to": [0, 0, 0]}
      ],
      "transformer": [
        {"id": 7, "energized": 1, "loading": 0.67226631557030514, "p_from": [205548.81572464595, 205548.81572464728, 205548.81572464504], "q_from": [89249.437121308118, 89249.437121307856, 89249.437121307274], "i_from": [36.96507177671063, 36.965071776710808, 36.965071776710431], "s_from": [224088.77185676838, 224088.77185676951, 224088.77185676718], "p_to": [-203992.51936267395, -203992.51936267421, -203992.51936267424], "q_to": [-79798.564395198409, -79798.564395199675, -79798.564395199355], "i_to": [37.762800751954096, 37.762800751954231, 37.762800751954167], "s_to": [219045.1068512272, 219045.1068512279, 219045.10685122781]}
      ],
      "shunt": [
        {"id": 4, "energized": 1, "p": [2114.0662177274612, 2114.0662177274435, 2114.0662177274553], "q": [-21140.662177274527, -21140.662177274513, -21140.662177274557], "i": [3.6627722418417119, 3.6627722418417101, 3.6627722418417128], "s": [21246.102542974375, 21246.10254297436, 21246.102542974404], "pf": [0.099503719020999318, 0.099503719020998541, 0.099503719020998901]}
      ],
      "source": [
        {"id": 5, "energized": 1, "p": [205548.81572464595, 205548.81572464728, 205548.81572464504], "q": [89249.437121308118, 89249.437121307856, 89249.437121307259], "i": [36.96507177671063, 36.965071776710808, 36.965071776710424], "s": [224088.77185676838, 224088.77185676951, 224088.77185676718], "pf": [0.91726512676872229, 0.91726512676872363, 0.91726512676872318]}
      ],
      "sym_load": [
        {"id": 6, "energized": 1, "p": [201878.45314494672, 201878.45314494648, 201878.45314494701], "q": [100939.22657247336, 100939.22657247324, 100939.2265724735], "i": [38.91128883225408, 38.911288832254058, 38.911288832254101], "s": [225706.97221230349, 225706.97221230328, 225706.97221230387], "pf": [0.89442719099991608, 0.89442719099991586, 0.89442719099991586]}
      ],
      "transformer_tap_regulator": [
        {"id": 8, "energized": 1, "tap_pos": 3}
      ]
    },
    {
      "node": [
        {"id": 1, "energized": 1, "u_pu": [1.049999687830099, 1.049999687830099, 1.049999687830099], "u": [6062.1760241773063, 6062.1760241773063, 6062.1760241773063], "u_angle": [-5.3237584571614309e-07, -2.0943956347690413, 2.0943945700173501], "p": [205548.81572464595, 205548.81572464728, 205548.81572464504], "q": [89249.437121308118, 89249.437121307856, 89249.437121307274]},
        {"id": 2, "energized": 1, "u_pu": [1.0046851575119111, 1.0046851575119105, 1.0046851575119118], "u": [5800.5524614032347, 5800.5524614032302, 5800.5524614032383], "u_angle": [-0.033528874528392164, -2.127923976921589, 2.0608662278648024], "p": [-201878.45314494648, -201878.4531449466, -201878.45314494648], "q": [-100939.22657247256, -100939.22657247361, -100939.22657247401]}
      ],
      "line": [
        {"id": 3, "energized": 1, "p_from": [1057.0331088637306, 1057.0331088637217, 1057.0331088637276], "q_from": [-10570.331088637264, -10570.331088637256, -10570.331088637278], "i_from": [1.831386120920856, 1.8313861209208551, 1.8313861209208564], "s_from": [10623.051271487187, 10623.05127148718, 10623.051271487202], "p_to": [1057.0331088637306, 1057.0331088637217, 1057.0331088637276], "q_to": [-10570.331088637264, -10570.331088637256, -10570.331088637278], "i_to": [1.831386120920856, 1.8313861209208551, 1.8313861209208564], "s_to": [10623.051271487187, 10623.05127148718, 10623.051271487202]}
      ],
      "transformer": [
        {"id": 7, "energized": 1, "loading": 0.67226631557030514, "p_from": [205548.81572464595, 205548.81572464728, 205548.81572464504], "q_from": [89249.437121308118, 89249.437121307856, 89249.437121307274], "i_from": [36.96507177671063, 36.965071776710808, 36.965071776710431], "s_from": [224088.77185676838, 224088.77185676951, 224088.77185676718], "p_to": [-203992.51936267395, -203992.51936267421, -203992.51936267424], "q_to": [-79798.564395198409, -79798.564395199675, -79798.564395199355], "i_to": [37.762800751954096, 37.762800751954231, 37.762800751954167], "s_to": [219045.1068512272, 219045.1068512279, 219045.10685122781]}
      ],
      "shunt": [
        {"id": 4, "energized": 0, "p": [0, 0, 0], "q": [0, 0, 0], "i": [0, 0, 0], "s": [0, 0, 0], "pf": [0, 0, 0]}
      ],
      "source": [
        {"id": 5, "energized": 1, "p": [205548.81572464595, 205548.81572464728, 205548.81572464504], "q": [89249.437121308118, 89249.437121307856, 89249.437121307259], "i": [36.96507177671063, 36.965071776710808, 36.965071776710424], "s": [224088.77185676838, 224088.77185676951, 224088.77185676718], "pf": [0.91726512676872229, 0.91726512676872363, 0.91726512676872318]}
      ],
      "sym_load": [
        {"id": 6, "energized": 1, "p": [201878.45314494672, 201878.45314494648, 201878.45314494701], "q": [100939.22657247336, 100939.22657247324, 100939.2265724735], "i": [38.91128883225408, 38.911288832254058, 38.911288832254101], "s": [225706.97221230349, 225706.97221230328, 225706.97221230387], "pf": [0.89442719099991608, 0.89442719099991586, 0.89442719099991586]}
      ],
      "transformer_tap_regulator": [
        {"id": 8, "energized": 1, "tap_pos": 3}
      ]
    }
  ]
}