tests/data/power_flow/automatic-tap-regulator/auto-tap-changer-with-line-into-itself/sym_output_batch.json
{
  "version": "1.0",
  "type": "sym_output",
  "is_batch": true,
  "attributes": {},
  "data": [
    {
      "node": [
        {"id": 1, "energized": 1, "u_pu": 1.0499996878300992, "u": 10499.996878300992, "u_angle": -5.323758457179371e-07, "p": 616646.44717394095, "q": 267748.31136392441},
        {"id": 2, "energized": 1, "u_pu": 1.0046851575119113, "u": 10046.851575119113, "u_angle": -0.033528874528392982, "p": -605635.3594348405, "q": -302817.67971742083}
      ],
      "line": [
        {"id": 3, "energized": 0, "p_from": 0, "q_from": 0, "i_from": 0, "s_from": 0, "p_to": 0, "q_to": 0, "i_to": 0, "s_to": 0}
      ],
      "transformer": [
        {"id": 7, "energized": 1, "loading": 0.67226631557030792, "p_from": 616646.44717394095, "q_from": 267748.31136392441, "i_from": 36.965071776710772, "s_from": 672266.3155703079, "p_to": -611977.55808802252, "q_to": -239395.69318559836, "i_to": 37.762800751954188, "s_to": 657135.32055368333}
      ],
      "shunt": [
        {"id": 4, "energized": 1, "p": 6342.1986531823622, "q": -63421.986531823612, "i": 3.6627722418417119, "s": 63738.307628923154, "pf": 0.099503719020998929}
      ],
      "source": [
        {"id": 5, "energized": 1, "p": 616646.44717394107, "q": 267748.31136392441, "i": 36.965071776710779, "s": 672266.31557030801, "pf": 0.91726512676872318}
      ],
      "sym_load": [
        {"id": 6, "energized": 1, "p": 605635.35943484039, "q": 302817.67971742019, "i": 38.91128883225408, "s": 677120.91663691087, "pf": 0.89442719099991586}
      ],
      "transformer_tap_regulator": [
        {"id": 8, "energized": 1, "tap_pos": 3}
      ]
    },
    {
      "node": [
        {"id": 1, "energized": 1, "u_pu": 1.0499996878300992, "u": 10499.996878300992, "u_angle": -5.323758457179371e-07, "p": 616646.44717394095, "q": 267748.31136392441},
        {"id": 2, "energized": 1, "u_pu": 1.0046851575119113, "u": 10046.851575119113, "u_angle": -0.033528874528392982, "p": -605635.3594348405, "q": -302817.67971742083}
      ],
      "line": [
        {"id": 3, "energized": 1, "p_from": 3171.0993265911811, "q_from": -31710.993265911806, "i_from": 1.831386120920856, "s_from": 31869.153814461577, "p_to": 3171.0993265911811, "q_to": -31710.993265911806, "i_to": 1.831386120920856, "s_to": 31869.153814461577}
      ],
      "transformer": [
        {"id": 7, "energized": 1, "loading": 0.67226631557030792, "p_from": 616646.44717394095, "q_from": 267748.31136392441, "i_from": 36.965071776710772, "s_from": 672266.3155703079, "p_to": -611977.55808802252, "q_to": -239395.69318559836, "i_to": 37.762800751954188, "s_to": 657135.32055368333}
      ],
      "shunt": [
        {"id": 4, "energized": 0, "p": 0, "q": 0, "i": 0, "s": 0, "pf": 0}
      ],
      "source": [
        {"id": 5, "energized": 1, "p": 616646.44717394107, "q": 267748.31136392441, "i": 36.965071776710779, "s": 672266.31557030801, "pf": 0.91726512676872318}
      ],
      "sym_load": [
        {"id": 6, "energized": 1, "p": 605635.35943484039, "q": 302817.67971742019, "i": 38.91128883225408, "s": 677120.91663691087, "pf": 0.89442719099991586}
      ],
      "transformer_tap_regulator": [
        {"id": 8, "energized": 1, "tap_pos": 3}
      ]
    }
  ]
}